DATABASE ../database/phreeqc.dat
SOLUTION 1
    temp      25
    pH        7
    pe        4
    redox     pe
    units     mmol/kgw
    density   1
    -water    1 # kg

PHASES
Fluorapatite
    Ca5(F)(PO4)3 = 5Ca+2 + F- + 3PO4-3
    log_k     -59.6
    -analytical_expression -1917.945184 0 87834.57783 631.9611081 0 0
Hydroxylapatite
    Ca5(OH)(PO4)3 = 5Ca+2 + OH- + 3PO4-3
    log_k     -58.517
    -analytical_expression -1.6657 -0.098215 -8219.41 0 0 0

SELECTED_OUTPUT 1
    -file                 stream_model_selected_output_1.sel
    -reset                false
    -temperature          true
    -pH          true
    -totals               P
    -saturation_indices   CO2(g)

USE SOLUTION 1; EQUILIBRIUM_PHASES 1; CO2(g)    -4 100; Hydroxyapatite 0 10 dissolve_only; Fluorapatite 0 10 dissolve_only; Calcite 0 10 dissolve_only; REACTION_TEMPERATURE 1; 50; END
USE SOLUTION 1; EQUILIBRIUM_PHASES 1; CO2(g)    -3.96 100; Hydroxyapatite 0 10 dissolve_only; Fluorapatite 0 10 dissolve_only; Calcite 0 10 dissolve_only; REACTION_TEMPERATURE 1; 50; END
USE SOLUTION 1; EQUILIBRIUM_PHASES 1; CO2(g)    -3.92 100; Hydroxyapatite 0 10 dissolve_only; Fluorapatite 0 10 dissolve_only; Calcite 0 10 dissolve_only; REACTION_TEMPERATURE 1; 50; END
USE SOLUTION 1; EQUILIBRIUM_PHASES 1; CO2(g)    -3.88 100; Hydroxyapatite 0 10 dissolve_only; Fluorapatite 0 10 dissolve_only; Calcite 0 10 dissolve_only; REACTION_TEMPERATURE 1; 50; END
USE SOLUTION 1; EQUILIBRIUM_PHASES 1; CO2(g)    -3.84 100; Hydroxyapatite 0 10 dissolve_only; Fluorapatite 0 10 dissolve_only; Calcite 0 10 dissolve_only; REACTION_TEMPERATURE 1; 50; END
USE SOLUTION 1; EQUILIBRIUM_PHASES 1; CO2(g)    -3.8 100; Hydroxyapatite 0 10 dissolve_only; Fluorapatite 0 10 dissolve_only; Calcite 0 10 dissolve_only; REACTION_TEMPERATURE 1; 50; END
USE SOLUTION 1; EQUILIBRIUM_PHASES 1; CO2(g)    -3.76 100; Hydroxyapatite 0 10 dissolve_only; Fluorapatite 0 10 dissolve_only; Calcite 0 10 dissolve_only; REACTION_TEMPERATURE 1; 50; END
USE SOLUTION 1; EQUILIBRIUM_PHASES 1; CO2(g)    -3.72 100; Hydroxyapatite 0 10 dissolve_only; Fluorapatite 0 10 dissolve_only; Calcite 0 10 dissolve_only; REACTION_TEMPERATURE 1; 50; END
USE SOLUTION 1; EQUILIBRIUM_PHASES 1; CO2(g)    -3.68 100; Hydroxyapatite 0 10 dissolve_only; Fluorapatite 0 10 dissolve_only; Calcite 0 10 dissolve_only; REACTION_TEMPERATURE 1; 50; END
USE SOLUTION 1; EQUILIBRIUM_PHASES 1; CO2(g)    -3.64 100; Hydroxyapatite 0 10 dissolve_only; Fluorapatite 0 10 dissolve_only; Calcite 0 10 dissolve_only; REACTION_TEMPERATURE 1; 50; END
USE SOLUTION 1; EQUILIBRIUM_PHASES 1; CO2(g)    -3.6 100; Hydroxyapatite 0 10 dissolve_only; Fluorapatite 0 10 dissolve_only; Calcite 0 10 dissolve_only; REACTION_TEMPERATURE 1; 50; END
USE SOLUTION 1; EQUILIBRIUM_PHASES 1; CO2(g)    -3.56 100; Hydroxyapatite 0 10 dissolve_only; Fluorapatite 0 10 dissolve_only; Calcite 0 10 dissolve_only; REACTION_TEMPERATURE 1; 50; END
USE SOLUTION 1; EQUILIBRIUM_PHASES 1; CO2(g)    -3.52 100; Hydroxyapatite 0 10 dissolve_only; Fluorapatite 0 10 dissolve_only; Calcite 0 10 dissolve_only; REACTION_TEMPERATURE 1; 50; END
USE SOLUTION 1; EQUILIBRIUM_PHASES 1; CO2(g)    -3.48 100; Hydroxyapatite 0 10 dissolve_only; Fluorapatite 0 10 dissolve_only; Calcite 0 10 dissolve_only; REACTION_TEMPERATURE 1; 50; END
USE SOLUTION 1; EQUILIBRIUM_PHASES 1; CO2(g)    -3.44 100; Hydroxyapatite 0 10 dissolve_only; Fluorapatite 0 10 dissolve_only; Calcite 0 10 dissolve_only; REACTION_TEMPERATURE 1; 50; END
USE SOLUTION 1; EQUILIBRIUM_PHASES 1; CO2(g)    -3.4 100; Hydroxyapatite 0 10 dissolve_only; Fluorapatite 0 10 dissolve_only; Calcite 0 10 dissolve_only; REACTION_TEMPERATURE 1; 50; END
USE SOLUTION 1; EQUILIBRIUM_PHASES 1; CO2(g)    -3.36 100; Hydroxyapatite 0 10 dissolve_only; Fluorapatite 0 10 dissolve_only; Calcite 0 10 dissolve_only; REACTION_TEMPERATURE 1; 50; END
USE SOLUTION 1; EQUILIBRIUM_PHASES 1; CO2(g)    -3.32 100; Hydroxyapatite 0 10 dissolve_only; Fluorapatite 0 10 dissolve_only; Calcite 0 10 dissolve_only; REACTION_TEMPERATURE 1; 50; END
USE SOLUTION 1; EQUILIBRIUM_PHASES 1; CO2(g)    -3.28 100; Hydroxyapatite 0 10 dissolve_only; Fluorapatite 0 10 dissolve_only; Calcite 0 10 dissolve_only; REACTION_TEMPERATURE 1; 50; END
USE SOLUTION 1; EQUILIBRIUM_PHASES 1; CO2(g)    -3.24 100; Hydroxyapatite 0 10 dissolve_only; Fluorapatite 0 10 dissolve_only; Calcite 0 10 dissolve_only; REACTION_TEMPERATURE 1; 50; END
USE SOLUTION 1; EQUILIBRIUM_PHASES 1; CO2(g)    -3.2 100; Hydroxyapatite 0 10 dissolve_only; Fluorapatite 0 10 dissolve_only; Calcite 0 10 dissolve_only; REACTION_TEMPERATURE 1; 50; END
USE SOLUTION 1; EQUILIBRIUM_PHASES 1; CO2(g)    -3.16 100; Hydroxyapatite 0 10 dissolve_only; Fluorapatite 0 10 dissolve_only; Calcite 0 10 dissolve_only; REACTION_TEMPERATURE 1; 50; END
USE SOLUTION 1; EQUILIBRIUM_PHASES 1; CO2(g)    -3.12 100; Hydroxyapatite 0 10 dissolve_only; Fluorapatite 0 10 dissolve_only; Calcite 0 10 dissolve_only; REACTION_TEMPERATURE 1; 50; END
USE SOLUTION 1; EQUILIBRIUM_PHASES 1; CO2(g)    -3.08 100; Hydroxyapatite 0 10 dissolve_only; Fluorapatite 0 10 dissolve_only; Calcite 0 10 dissolve_only; REACTION_TEMPERATURE 1; 50; END
USE SOLUTION 1; EQUILIBRIUM_PHASES 1; CO2(g)    -3.04 100; Hydroxyapatite 0 10 dissolve_only; Fluorapatite 0 10 dissolve_only; Calcite 0 10 dissolve_only; REACTION_TEMPERATURE 1; 50; END
USE SOLUTION 1; EQUILIBRIUM_PHASES 1; CO2(g)    -3 100; Hydroxyapatite 0 10 dissolve_only; Fluorapatite 0 10 dissolve_only; Calcite 0 10 dissolve_only; REACTION_TEMPERATURE 1; 50; END
USE SOLUTION 1; EQUILIBRIUM_PHASES 1; CO2(g)    -2.96 100; Hydroxyapatite 0 10 dissolve_only; Fluorapatite 0 10 dissolve_only; Calcite 0 10 dissolve_only; REACTION_TEMPERATURE 1; 50; END
USE SOLUTION 1; EQUILIBRIUM_PHASES 1; CO2(g)    -2.92 100; Hydroxyapatite 0 10 dissolve_only; Fluorapatite 0 10 dissolve_only; Calcite 0 10 dissolve_only; REACTION_TEMPERATURE 1; 50; END
USE SOLUTION 1; EQUILIBRIUM_PHASES 1; CO2(g)    -2.88 100; Hydroxyapatite 0 10 dissolve_only; Fluorapatite 0 10 dissolve_only; Calcite 0 10 dissolve_only; REACTION_TEMPERATURE 1; 50; END
USE SOLUTION 1; EQUILIBRIUM_PHASES 1; CO2(g)    -2.84 100; Hydroxyapatite 0 10 dissolve_only; Fluorapatite 0 10 dissolve_only; Calcite 0 10 dissolve_only; REACTION_TEMPERATURE 1; 50; END
USE SOLUTION 1; EQUILIBRIUM_PHASES 1; CO2(g)    -2.8 100; Hydroxyapatite 0 10 dissolve_only; Fluorapatite 0 10 dissolve_only; Calcite 0 10 dissolve_only; REACTION_TEMPERATURE 1; 50; END
USE SOLUTION 1; EQUILIBRIUM_PHASES 1; CO2(g)    -2.76 100; Hydroxyapatite 0 10 dissolve_only; Fluorapatite 0 10 dissolve_only; Calcite 0 10 dissolve_only; REACTION_TEMPERATURE 1; 50; END
USE SOLUTION 1; EQUILIBRIUM_PHASES 1; CO2(g)    -2.72 100; Hydroxyapatite 0 10 dissolve_only; Fluorapatite 0 10 dissolve_only; Calcite 0 10 dissolve_only; REACTION_TEMPERATURE 1; 50; END
USE SOLUTION 1; EQUILIBRIUM_PHASES 1; CO2(g)    -2.68 100; Hydroxyapatite 0 10 dissolve_only; Fluorapatite 0 10 dissolve_only; Calcite 0 10 dissolve_only; REACTION_TEMPERATURE 1; 50; END
USE SOLUTION 1; EQUILIBRIUM_PHASES 1; CO2(g)    -2.64 100; Hydroxyapatite 0 10 dissolve_only; Fluorapatite 0 10 dissolve_only; Calcite 0 10 dissolve_only; REACTION_TEMPERATURE 1; 50; END
USE SOLUTION 1; EQUILIBRIUM_PHASES 1; CO2(g)    -2.6 100; Hydroxyapatite 0 10 dissolve_only; Fluorapatite 0 10 dissolve_only; Calcite 0 10 dissolve_only; REACTION_TEMPERATURE 1; 50; END
USE SOLUTION 1; EQUILIBRIUM_PHASES 1; CO2(g)    -2.56 100; Hydroxyapatite 0 10 dissolve_only; Fluorapatite 0 10 dissolve_only; Calcite 0 10 dissolve_only; REACTION_TEMPERATURE 1; 50; END
USE SOLUTION 1; EQUILIBRIUM_PHASES 1; CO2(g)    -2.52 100; Hydroxyapatite 0 10 dissolve_only; Fluorapatite 0 10 dissolve_only; Calcite 0 10 dissolve_only; REACTION_TEMPERATURE 1; 50; END
USE SOLUTION 1; EQUILIBRIUM_PHASES 1; CO2(g)    -2.48 100; Hydroxyapatite 0 10 dissolve_only; Fluorapatite 0 10 dissolve_only; Calcite 0 10 dissolve_only; REACTION_TEMPERATURE 1; 50; END
USE SOLUTION 1; EQUILIBRIUM_PHASES 1; CO2(g)    -2.44 100; Hydroxyapatite 0 10 dissolve_only; Fluorapatite 0 10 dissolve_only; Calcite 0 10 dissolve_only; REACTION_TEMPERATURE 1; 50; END
USE SOLUTION 1; EQUILIBRIUM_PHASES 1; CO2(g)    -2.4 100; Hydroxyapatite 0 10 dissolve_only; Fluorapatite 0 10 dissolve_only; Calcite 0 10 dissolve_only; REACTION_TEMPERATURE 1; 50; END
USE SOLUTION 1; EQUILIBRIUM_PHASES 1; CO2(g)    -2.36 100; Hydroxyapatite 0 10 dissolve_only; Fluorapatite 0 10 dissolve_only; Calcite 0 10 dissolve_only; REACTION_TEMPERATURE 1; 50; END
USE SOLUTION 1; EQUILIBRIUM_PHASES 1; CO2(g)    -2.32 100; Hydroxyapatite 0 10 dissolve_only; Fluorapatite 0 10 dissolve_only; Calcite 0 10 dissolve_only; REACTION_TEMPERATURE 1; 50; END
USE SOLUTION 1; EQUILIBRIUM_PHASES 1; CO2(g)    -2.28 100; Hydroxyapatite 0 10 dissolve_only; Fluorapatite 0 10 dissolve_only; Calcite 0 10 dissolve_only; REACTION_TEMPERATURE 1; 50; END
USE SOLUTION 1; EQUILIBRIUM_PHASES 1; CO2(g)    -2.24 100; Hydroxyapatite 0 10 dissolve_only; Fluorapatite 0 10 dissolve_only; Calcite 0 10 dissolve_only; REACTION_TEMPERATURE 1; 50; END
USE SOLUTION 1; EQUILIBRIUM_PHASES 1; CO2(g)    -2.2 100; Hydroxyapatite 0 10 dissolve_only; Fluorapatite 0 10 dissolve_only; Calcite 0 10 dissolve_only; REACTION_TEMPERATURE 1; 50; END
USE SOLUTION 1; EQUILIBRIUM_PHASES 1; CO2(g)    -2.16 100; Hydroxyapatite 0 10 dissolve_only; Fluorapatite 0 10 dissolve_only; Calcite 0 10 dissolve_only; REACTION_TEMPERATURE 1; 50; END
USE SOLUTION 1; EQUILIBRIUM_PHASES 1; CO2(g)    -2.12 100; Hydroxyapatite 0 10 dissolve_only; Fluorapatite 0 10 dissolve_only; Calcite 0 10 dissolve_only; REACTION_TEMPERATURE 1; 50; END
USE SOLUTION 1; EQUILIBRIUM_PHASES 1; CO2(g)    -2.08 100; Hydroxyapatite 0 10 dissolve_only; Fluorapatite 0 10 dissolve_only; Calcite 0 10 dissolve_only; REACTION_TEMPERATURE 1; 50; END
USE SOLUTION 1; EQUILIBRIUM_PHASES 1; CO2(g)    -2.04 100; Hydroxyapatite 0 10 dissolve_only; Fluorapatite 0 10 dissolve_only; Calcite 0 10 dissolve_only; REACTION_TEMPERATURE 1; 50; END
USE SOLUTION 1; EQUILIBRIUM_PHASES 1; CO2(g)    -2 100; Hydroxyapatite 0 10 dissolve_only; Fluorapatite 0 10 dissolve_only; Calcite 0 10 dissolve_only; REACTION_TEMPERATURE 1; 50; END
USE SOLUTION 1; EQUILIBRIUM_PHASES 1; CO2(g)    -1.96 100; Hydroxyapatite 0 10 dissolve_only; Fluorapatite 0 10 dissolve_only; Calcite 0 10 dissolve_only; REACTION_TEMPERATURE 1; 50; END
USE SOLUTION 1; EQUILIBRIUM_PHASES 1; CO2(g)    -1.92 100; Hydroxyapatite 0 10 dissolve_only; Fluorapatite 0 10 dissolve_only; Calcite 0 10 dissolve_only; REACTION_TEMPERATURE 1; 50; END
USE SOLUTION 1; EQUILIBRIUM_PHASES 1; CO2(g)    -1.88 100; Hydroxyapatite 0 10 dissolve_only; Fluorapatite 0 10 dissolve_only; Calcite 0 10 dissolve_only; REACTION_TEMPERATURE 1; 50; END
USE SOLUTION 1; EQUILIBRIUM_PHASES 1; CO2(g)    -1.84 100; Hydroxyapatite 0 10 dissolve_only; Fluorapatite 0 10 dissolve_only; Calcite 0 10 dissolve_only; REACTION_TEMPERATURE 1; 50; END
USE SOLUTION 1; EQUILIBRIUM_PHASES 1; CO2(g)    -1.8 100; Hydroxyapatite 0 10 dissolve_only; Fluorapatite 0 10 dissolve_only; Calcite 0 10 dissolve_only; REACTION_TEMPERATURE 1; 50; END
USE SOLUTION 1; EQUILIBRIUM_PHASES 1; CO2(g)    -1.76 100; Hydroxyapatite 0 10 dissolve_only; Fluorapatite 0 10 dissolve_only; Calcite 0 10 dissolve_only; REACTION_TEMPERATURE 1; 50; END
USE SOLUTION 1; EQUILIBRIUM_PHASES 1; CO2(g)    -1.72 100; Hydroxyapatite 0 10 dissolve_only; Fluorapatite 0 10 dissolve_only; Calcite 0 10 dissolve_only; REACTION_TEMPERATURE 1; 50; END
USE SOLUTION 1; EQUILIBRIUM_PHASES 1; CO2(g)    -1.68 100; Hydroxyapatite 0 10 dissolve_only; Fluorapatite 0 10 dissolve_only; Calcite 0 10 dissolve_only; REACTION_TEMPERATURE 1; 50; END
USE SOLUTION 1; EQUILIBRIUM_PHASES 1; CO2(g)    -1.64 100; Hydroxyapatite 0 10 dissolve_only; Fluorapatite 0 10 dissolve_only; Calcite 0 10 dissolve_only; REACTION_TEMPERATURE 1; 50; END
USE SOLUTION 1; EQUILIBRIUM_PHASES 1; CO2(g)    -1.6 100; Hydroxyapatite 0 10 dissolve_only; Fluorapatite 0 10 dissolve_only; Calcite 0 10 dissolve_only; REACTION_TEMPERATURE 1; 50; END
USE SOLUTION 1; EQUILIBRIUM_PHASES 1; CO2(g)    -1.56 100; Hydroxyapatite 0 10 dissolve_only; Fluorapatite 0 10 dissolve_only; Calcite 0 10 dissolve_only; REACTION_TEMPERATURE 1; 50; END
USE SOLUTION 1; EQUILIBRIUM_PHASES 1; CO2(g)    -1.52 100; Hydroxyapatite 0 10 dissolve_only; Fluorapatite 0 10 dissolve_only; Calcite 0 10 dissolve_only; REACTION_TEMPERATURE 1; 50; END
USE SOLUTION 1; EQUILIBRIUM_PHASES 1; CO2(g)    -1.48 100; Hydroxyapatite 0 10 dissolve_only; Fluorapatite 0 10 dissolve_only; Calcite 0 10 dissolve_only; REACTION_TEMPERATURE 1; 50; END
USE SOLUTION 1; EQUILIBRIUM_PHASES 1; CO2(g)    -1.44 100; Hydroxyapatite 0 10 dissolve_only; Fluorapatite 0 10 dissolve_only; Calcite 0 10 dissolve_only; REACTION_TEMPERATURE 1; 50; END
USE SOLUTION 1; EQUILIBRIUM_PHASES 1; CO2(g)    -1.4 100; Hydroxyapatite 0 10 dissolve_only; Fluorapatite 0 10 dissolve_only; Calcite 0 10 dissolve_only; REACTION_TEMPERATURE 1; 50; END
USE SOLUTION 1; EQUILIBRIUM_PHASES 1; CO2(g)    -1.36 100; Hydroxyapatite 0 10 dissolve_only; Fluorapatite 0 10 dissolve_only; Calcite 0 10 dissolve_only; REACTION_TEMPERATURE 1; 50; END
USE SOLUTION 1; EQUILIBRIUM_PHASES 1; CO2(g)    -1.32 100; Hydroxyapatite 0 10 dissolve_only; Fluorapatite 0 10 dissolve_only; Calcite 0 10 dissolve_only; REACTION_TEMPERATURE 1; 50; END
USE SOLUTION 1; EQUILIBRIUM_PHASES 1; CO2(g)    -1.28 100; Hydroxyapatite 0 10 dissolve_only; Fluorapatite 0 10 dissolve_only; Calcite 0 10 dissolve_only; REACTION_TEMPERATURE 1; 50; END
USE SOLUTION 1; EQUILIBRIUM_PHASES 1; CO2(g)    -1.24 100; Hydroxyapatite 0 10 dissolve_only; Fluorapatite 0 10 dissolve_only; Calcite 0 10 dissolve_only; REACTION_TEMPERATURE 1; 50; END
USE SOLUTION 1; EQUILIBRIUM_PHASES 1; CO2(g)    -1.2 100; Hydroxyapatite 0 10 dissolve_only; Fluorapatite 0 10 dissolve_only; Calcite 0 10 dissolve_only; REACTION_TEMPERATURE 1; 50; END
USE SOLUTION 1; EQUILIBRIUM_PHASES 1; CO2(g)    -1.16 100; Hydroxyapatite 0 10 dissolve_only; Fluorapatite 0 10 dissolve_only; Calcite 0 10 dissolve_only; REACTION_TEMPERATURE 1; 50; END
USE SOLUTION 1; EQUILIBRIUM_PHASES 1; CO2(g)    -1.12 100; Hydroxyapatite 0 10 dissolve_only; Fluorapatite 0 10 dissolve_only; Calcite 0 10 dissolve_only; REACTION_TEMPERATURE 1; 50; END
USE SOLUTION 1; EQUILIBRIUM_PHASES 1; CO2(g)    -1.08 100; Hydroxyapatite 0 10 dissolve_only; Fluorapatite 0 10 dissolve_only; Calcite 0 10 dissolve_only; REACTION_TEMPERATURE 1; 50; END
USE SOLUTION 1; EQUILIBRIUM_PHASES 1; CO2(g)    -1.04 100; Hydroxyapatite 0 10 dissolve_only; Fluorapatite 0 10 dissolve_only; Calcite 0 10 dissolve_only; REACTION_TEMPERATURE 1; 50; END
USE SOLUTION 1; EQUILIBRIUM_PHASES 1; CO2(g)    -1 100; Hydroxyapatite 0 10 dissolve_only; Fluorapatite 0 10 dissolve_only; Calcite 0 10 dissolve_only; REACTION_TEMPERATURE 1; 50; END
USE SOLUTION 1; EQUILIBRIUM_PHASES 1; CO2(g)    -0.96 100; Hydroxyapatite 0 10 dissolve_only; Fluorapatite 0 10 dissolve_only; Calcite 0 10 dissolve_only; REACTION_TEMPERATURE 1; 50; END
USE SOLUTION 1; EQUILIBRIUM_PHASES 1; CO2(g)    -0.92 100; Hydroxyapatite 0 10 dissolve_only; Fluorapatite 0 10 dissolve_only; Calcite 0 10 dissolve_only; REACTION_TEMPERATURE 1; 50; END
USE SOLUTION 1; EQUILIBRIUM_PHASES 1; CO2(g)    -0.88 100; Hydroxyapatite 0 10 dissolve_only; Fluorapatite 0 10 dissolve_only; Calcite 0 10 dissolve_only; REACTION_TEMPERATURE 1; 50; END
USE SOLUTION 1; EQUILIBRIUM_PHASES 1; CO2(g)    -0.84 100; Hydroxyapatite 0 10 dissolve_only; Fluorapatite 0 10 dissolve_only; Calcite 0 10 dissolve_only; REACTION_TEMPERATURE 1; 50; END
USE SOLUTION 1; EQUILIBRIUM_PHASES 1; CO2(g)    -0.8 100; Hydroxyapatite 0 10 dissolve_only; Fluorapatite 0 10 dissolve_only; Calcite 0 10 dissolve_only; REACTION_TEMPERATURE 1; 50; END
USE SOLUTION 1; EQUILIBRIUM_PHASES 1; CO2(g)    -0.76 100; Hydroxyapatite 0 10 dissolve_only; Fluorapatite 0 10 dissolve_only; Calcite 0 10 dissolve_only; REACTION_TEMPERATURE 1; 50; END
USE SOLUTION 1; EQUILIBRIUM_PHASES 1; CO2(g)    -0.72 100; Hydroxyapatite 0 10 dissolve_only; Fluorapatite 0 10 dissolve_only; Calcite 0 10 dissolve_only; REACTION_TEMPERATURE 1; 50; END
USE SOLUTION 1; EQUILIBRIUM_PHASES 1; CO2(g)    -0.68 100; Hydroxyapatite 0 10 dissolve_only; Fluorapatite 0 10 dissolve_only; Calcite 0 10 dissolve_only; REACTION_TEMPERATURE 1; 50; END
USE SOLUTION 1; EQUILIBRIUM_PHASES 1; CO2(g)    -0.64 100; Hydroxyapatite 0 10 dissolve_only; Fluorapatite 0 10 dissolve_only; Calcite 0 10 dissolve_only; REACTION_TEMPERATURE 1; 50; END
USE SOLUTION 1; EQUILIBRIUM_PHASES 1; CO2(g)    -0.6 100; Hydroxyapatite 0 10 dissolve_only; Fluorapatite 0 10 dissolve_only; Calcite 0 10 dissolve_only; REACTION_TEMPERATURE 1; 50; END
USE SOLUTION 1; EQUILIBRIUM_PHASES 1; CO2(g)    -0.56 100; Hydroxyapatite 0 10 dissolve_only; Fluorapatite 0 10 dissolve_only; Calcite 0 10 dissolve_only; REACTION_TEMPERATURE 1; 50; END
USE SOLUTION 1; EQUILIBRIUM_PHASES 1; CO2(g)    -0.52 100; Hydroxyapatite 0 10 dissolve_only; Fluorapatite 0 10 dissolve_only; Calcite 0 10 dissolve_only; REACTION_TEMPERATURE 1; 50; END
USE SOLUTION 1; EQUILIBRIUM_PHASES 1; CO2(g)    -0.48 100; Hydroxyapatite 0 10 dissolve_only; Fluorapatite 0 10 dissolve_only; Calcite 0 10 dissolve_only; REACTION_TEMPERATURE 1; 50; END
USE SOLUTION 1; EQUILIBRIUM_PHASES 1; CO2(g)    -0.44 100; Hydroxyapatite 0 10 dissolve_only; Fluorapatite 0 10 dissolve_only; Calcite 0 10 dissolve_only; REACTION_TEMPERATURE 1; 50; END
USE SOLUTION 1; EQUILIBRIUM_PHASES 1; CO2(g)    -0.4 100; Hydroxyapatite 0 10 dissolve_only; Fluorapatite 0 10 dissolve_only; Calcite 0 10 dissolve_only; REACTION_TEMPERATURE 1; 50; END
USE SOLUTION 1; EQUILIBRIUM_PHASES 1; CO2(g)    -0.36 100; Hydroxyapatite 0 10 dissolve_only; Fluorapatite 0 10 dissolve_only; Calcite 0 10 dissolve_only; REACTION_TEMPERATURE 1; 50; END
USE SOLUTION 1; EQUILIBRIUM_PHASES 1; CO2(g)    -0.32 100; Hydroxyapatite 0 10 dissolve_only; Fluorapatite 0 10 dissolve_only; Calcite 0 10 dissolve_only; REACTION_TEMPERATURE 1; 50; END
USE SOLUTION 1; EQUILIBRIUM_PHASES 1; CO2(g)    -0.28 100; Hydroxyapatite 0 10 dissolve_only; Fluorapatite 0 10 dissolve_only; Calcite 0 10 dissolve_only; REACTION_TEMPERATURE 1; 50; END
USE SOLUTION 1; EQUILIBRIUM_PHASES 1; CO2(g)    -0.24 100; Hydroxyapatite 0 10 dissolve_only; Fluorapatite 0 10 dissolve_only; Calcite 0 10 dissolve_only; REACTION_TEMPERATURE 1; 50; END
USE SOLUTION 1; EQUILIBRIUM_PHASES 1; CO2(g)    -0.2 100; Hydroxyapatite 0 10 dissolve_only; Fluorapatite 0 10 dissolve_only; Calcite 0 10 dissolve_only; REACTION_TEMPERATURE 1; 50; END
USE SOLUTION 1; EQUILIBRIUM_PHASES 1; CO2(g)    -0.16 100; Hydroxyapatite 0 10 dissolve_only; Fluorapatite 0 10 dissolve_only; Calcite 0 10 dissolve_only; REACTION_TEMPERATURE 1; 50; END
USE SOLUTION 1; EQUILIBRIUM_PHASES 1; CO2(g)    -0.12 100; Hydroxyapatite 0 10 dissolve_only; Fluorapatite 0 10 dissolve_only; Calcite 0 10 dissolve_only; REACTION_TEMPERATURE 1; 50; END
USE SOLUTION 1; EQUILIBRIUM_PHASES 1; CO2(g)    -0.08 100; Hydroxyapatite 0 10 dissolve_only; Fluorapatite 0 10 dissolve_only; Calcite 0 10 dissolve_only; REACTION_TEMPERATURE 1; 50; END
USE SOLUTION 1; EQUILIBRIUM_PHASES 1; CO2(g)    -0.04 100; Hydroxyapatite 0 10 dissolve_only; Fluorapatite 0 10 dissolve_only; Calcite 0 10 dissolve_only; REACTION_TEMPERATURE 1; 50; END
USE SOLUTION 1; EQUILIBRIUM_PHASES 1; CO2(g)    0 100; Hydroxyapatite 0 10 dissolve_only; Fluorapatite 0 10 dissolve_only; Calcite 0 10 dissolve_only; REACTION_TEMPERATURE 1; 50; END
USE SOLUTION 1; EQUILIBRIUM_PHASES 1; CO2(g)    -4 100; Hydroxyapatite 0 10 dissolve_only; Fluorapatite 0 10 dissolve_only; Calcite 0 10 dissolve_only; REACTION_TEMPERATURE 1; 49.5; END
USE SOLUTION 1; EQUILIBRIUM_PHASES 1; CO2(g)    -3.96 100; Hydroxyapatite 0 10 dissolve_only; Fluorapatite 0 10 dissolve_only; Calcite 0 10 dissolve_only; REACTION_TEMPERATURE 1; 49.5; END
USE SOLUTION 1; EQUILIBRIUM_PHASES 1; CO2(g)    -3.92 100; Hydroxyapatite 0 10 dissolve_only; Fluorapatite 0 10 dissolve_only; Calcite 0 10 dissolve_only; REACTION_TEMPERATURE 1; 49.5; END
USE SOLUTION 1; EQUILIBRIUM_PHASES 1; CO2(g)    -3.88 100; Hydroxyapatite 0 10 dissolve_only; Fluorapatite 0 10 dissolve_only; Calcite 0 10 dissolve_only; REACTION_TEMPERATURE 1; 49.5; END
USE SOLUTION 1; EQUILIBRIUM_PHASES 1; CO2(g)    -3.84 100; Hydroxyapatite 0 10 dissolve_only; Fluorapatite 0 10 dissolve_only; Calcite 0 10 dissolve_only; REACTION_TEMPERATURE 1; 49.5; END
USE SOLUTION 1; EQUILIBRIUM_PHASES 1; CO2(g)    -3.8 100; Hydroxyapatite 0 10 dissolve_only; Fluorapatite 0 10 dissolve_only; Calcite 0 10 dissolve_only; REACTION_TEMPERATURE 1; 49.5; END
USE SOLUTION 1; EQUILIBRIUM_PHASES 1; CO2(g)    -3.76 100; Hydroxyapatite 0 10 dissolve_only; Fluorapatite 0 10 dissolve_only; Calcite 0 10 dissolve_only; REACTION_TEMPERATURE 1; 49.5; END
USE SOLUTION 1; EQUILIBRIUM_PHASES 1; CO2(g)    -3.72 100; Hydroxyapatite 0 10 dissolve_only; Fluorapatite 0 10 dissolve_only; Calcite 0 10 dissolve_only; REACTION_TEMPERATURE 1; 49.5; END
USE SOLUTION 1; EQUILIBRIUM_PHASES 1; CO2(g)    -3.68 100; Hydroxyapatite 0 10 dissolve_only; Fluorapatite 0 10 dissolve_only; Calcite 0 10 dissolve_only; REACTION_TEMPERATURE 1; 49.5; END
USE SOLUTION 1; EQUILIBRIUM_PHASES 1; CO2(g)    -3.64 100; Hydroxyapatite 0 10 dissolve_only; Fluorapatite 0 10 dissolve_only; Calcite 0 10 dissolve_only; REACTION_TEMPERATURE 1; 49.5; END
USE SOLUTION 1; EQUILIBRIUM_PHASES 1; CO2(g)    -3.6 100; Hydroxyapatite 0 10 dissolve_only; Fluorapatite 0 10 dissolve_only; Calcite 0 10 dissolve_only; REACTION_TEMPERATURE 1; 49.5; END
USE SOLUTION 1; EQUILIBRIUM_PHASES 1; CO2(g)    -3.56 100; Hydroxyapatite 0 10 dissolve_only; Fluorapatite 0 10 dissolve_only; Calcite 0 10 dissolve_only; REACTION_TEMPERATURE 1; 49.5; END
USE SOLUTION 1; EQUILIBRIUM_PHASES 1; CO2(g)    -3.52 100; Hydroxyapatite 0 10 dissolve_only; Fluorapatite 0 10 dissolve_only; Calcite 0 10 dissolve_only; REACTION_TEMPERATURE 1; 49.5; END
USE SOLUTION 1; EQUILIBRIUM_PHASES 1; CO2(g)    -3.48 100; Hydroxyapatite 0 10 dissolve_only; Fluorapatite 0 10 dissolve_only; Calcite 0 10 dissolve_only; REACTION_TEMPERATURE 1; 49.5; END
USE SOLUTION 1; EQUILIBRIUM_PHASES 1; CO2(g)    -3.44 100; Hydroxyapatite 0 10 dissolve_only; Fluorapatite 0 10 dissolve_only; Calcite 0 10 dissolve_only; REACTION_TEMPERATURE 1; 49.5; END
USE SOLUTION 1; EQUILIBRIUM_PHASES 1; CO2(g)    -3.4 100; Hydroxyapatite 0 10 dissolve_only; Fluorapatite 0 10 dissolve_only; Calcite 0 10 dissolve_only; REACTION_TEMPERATURE 1; 49.5; END
USE SOLUTION 1; EQUILIBRIUM_PHASES 1; CO2(g)    -3.36 100; Hydroxyapatite 0 10 dissolve_only; Fluorapatite 0 10 dissolve_only; Calcite 0 10 dissolve_only; REACTION_TEMPERATURE 1; 49.5; END
USE SOLUTION 1; EQUILIBRIUM_PHASES 1; CO2(g)    -3.32 100; Hydroxyapatite 0 10 dissolve_only; Fluorapatite 0 10 dissolve_only; Calcite 0 10 dissolve_only; REACTION_TEMPERATURE 1; 49.5; END
USE SOLUTION 1; EQUILIBRIUM_PHASES 1; CO2(g)    -3.28 100; Hydroxyapatite 0 10 dissolve_only; Fluorapatite 0 10 dissolve_only; Calcite 0 10 dissolve_only; REACTION_TEMPERATURE 1; 49.5; END
USE SOLUTION 1; EQUILIBRIUM_PHASES 1; CO2(g)    -3.24 100; Hydroxyapatite 0 10 dissolve_only; Fluorapatite 0 10 dissolve_only; Calcite 0 10 dissolve_only; REACTION_TEMPERATURE 1; 49.5; END
USE SOLUTION 1; EQUILIBRIUM_PHASES 1; CO2(g)    -3.2 100; Hydroxyapatite 0 10 dissolve_only; Fluorapatite 0 10 dissolve_only; Calcite 0 10 dissolve_only; REACTION_TEMPERATURE 1; 49.5; END
USE SOLUTION 1; EQUILIBRIUM_PHASES 1; CO2(g)    -3.16 100; Hydroxyapatite 0 10 dissolve_only; Fluorapatite 0 10 dissolve_only; Calcite 0 10 dissolve_only; REACTION_TEMPERATURE 1; 49.5; END
USE SOLUTION 1; EQUILIBRIUM_PHASES 1; CO2(g)    -3.12 100; Hydroxyapatite 0 10 dissolve_only; Fluorapatite 0 10 dissolve_only; Calcite 0 10 dissolve_only; REACTION_TEMPERATURE 1; 49.5; END
USE SOLUTION 1; EQUILIBRIUM_PHASES 1; CO2(g)    -3.08 100; Hydroxyapatite 0 10 dissolve_only; Fluorapatite 0 10 dissolve_only; Calcite 0 10 dissolve_only; REACTION_TEMPERATURE 1; 49.5; END
USE SOLUTION 1; EQUILIBRIUM_PHASES 1; CO2(g)    -3.04 100; Hydroxyapatite 0 10 dissolve_only; Fluorapatite 0 10 dissolve_only; Calcite 0 10 dissolve_only; REACTION_TEMPERATURE 1; 49.5; END
USE SOLUTION 1; EQUILIBRIUM_PHASES 1; CO2(g)    -3 100; Hydroxyapatite 0 10 dissolve_only; Fluorapatite 0 10 dissolve_only; Calcite 0 10 dissolve_only; REACTION_TEMPERATURE 1; 49.5; END
USE SOLUTION 1; EQUILIBRIUM_PHASES 1; CO2(g)    -2.96 100; Hydroxyapatite 0 10 dissolve_only; Fluorapatite 0 10 dissolve_only; Calcite 0 10 dissolve_only; REACTION_TEMPERATURE 1; 49.5; END
USE SOLUTION 1; EQUILIBRIUM_PHASES 1; CO2(g)    -2.92 100; Hydroxyapatite 0 10 dissolve_only; Fluorapatite 0 10 dissolve_only; Calcite 0 10 dissolve_only; REACTION_TEMPERATURE 1; 49.5; END
USE SOLUTION 1; EQUILIBRIUM_PHASES 1; CO2(g)    -2.88 100; Hydroxyapatite 0 10 dissolve_only; Fluorapatite 0 10 dissolve_only; Calcite 0 10 dissolve_only; REACTION_TEMPERATURE 1; 49.5; END
USE SOLUTION 1; EQUILIBRIUM_PHASES 1; CO2(g)    -2.84 100; Hydroxyapatite 0 10 dissolve_only; Fluorapatite 0 10 dissolve_only; Calcite 0 10 dissolve_only; REACTION_TEMPERATURE 1; 49.5; END
USE SOLUTION 1; EQUILIBRIUM_PHASES 1; CO2(g)    -2.8 100; Hydroxyapatite 0 10 dissolve_only; Fluorapatite 0 10 dissolve_only; Calcite 0 10 dissolve_only; REACTION_TEMPERATURE 1; 49.5; END
USE SOLUTION 1; EQUILIBRIUM_PHASES 1; CO2(g)    -2.76 100; Hydroxyapatite 0 10 dissolve_only; Fluorapatite 0 10 dissolve_only; Calcite 0 10 dissolve_only; REACTION_TEMPERATURE 1; 49.5; END
USE SOLUTION 1; EQUILIBRIUM_PHASES 1; CO2(g)    -2.72 100; Hydroxyapatite 0 10 dissolve_only; Fluorapatite 0 10 dissolve_only; Calcite 0 10 dissolve_only; REACTION_TEMPERATURE 1; 49.5; END
USE SOLUTION 1; EQUILIBRIUM_PHASES 1; CO2(g)    -2.68 100; Hydroxyapatite 0 10 dissolve_only; Fluorapatite 0 10 dissolve_only; Calcite 0 10 dissolve_only; REACTION_TEMPERATURE 1; 49.5; END
USE SOLUTION 1; EQUILIBRIUM_PHASES 1; CO2(g)    -2.64 100; Hydroxyapatite 0 10 dissolve_only; Fluorapatite 0 10 dissolve_only; Calcite 0 10 dissolve_only; REACTION_TEMPERATURE 1; 49.5; END
USE SOLUTION 1; EQUILIBRIUM_PHASES 1; CO2(g)    -2.6 100; Hydroxyapatite 0 10 dissolve_only; Fluorapatite 0 10 dissolve_only; Calcite 0 10 dissolve_only; REACTION_TEMPERATURE 1; 49.5; END
USE SOLUTION 1; EQUILIBRIUM_PHASES 1; CO2(g)    -2.56 100; Hydroxyapatite 0 10 dissolve_only; Fluorapatite 0 10 dissolve_only; Calcite 0 10 dissolve_only; REACTION_TEMPERATURE 1; 49.5; END
USE SOLUTION 1; EQUILIBRIUM_PHASES 1; CO2(g)    -2.52 100; Hydroxyapatite 0 10 dissolve_only; Fluorapatite 0 10 dissolve_only; Calcite 0 10 dissolve_only; REACTION_TEMPERATURE 1; 49.5; END
USE SOLUTION 1; EQUILIBRIUM_PHASES 1; CO2(g)    -2.48 100; Hydroxyapatite 0 10 dissolve_only; Fluorapatite 0 10 dissolve_only; Calcite 0 10 dissolve_only; REACTION_TEMPERATURE 1; 49.5; END
USE SOLUTION 1; EQUILIBRIUM_PHASES 1; CO2(g)    -2.44 100; Hydroxyapatite 0 10 dissolve_only; Fluorapatite 0 10 dissolve_only; Calcite 0 10 dissolve_only; REACTION_TEMPERATURE 1; 49.5; END
USE SOLUTION 1; EQUILIBRIUM_PHASES 1; CO2(g)    -2.4 100; Hydroxyapatite 0 10 dissolve_only; Fluorapatite 0 10 dissolve_only; Calcite 0 10 dissolve_only; REACTION_TEMPERATURE 1; 49.5; END
USE SOLUTION 1; EQUILIBRIUM_PHASES 1; CO2(g)    -2.36 100; Hydroxyapatite 0 10 dissolve_only; Fluorapatite 0 10 dissolve_only; Calcite 0 10 dissolve_only; REACTION_TEMPERATURE 1; 49.5; END
USE SOLUTION 1; EQUILIBRIUM_PHASES 1; CO2(g)    -2.32 100; Hydroxyapatite 0 10 dissolve_only; Fluorapatite 0 10 dissolve_only; Calcite 0 10 dissolve_only; REACTION_TEMPERATURE 1; 49.5; END
USE SOLUTION 1; EQUILIBRIUM_PHASES 1; CO2(g)    -2.28 100; Hydroxyapatite 0 10 dissolve_only; Fluorapatite 0 10 dissolve_only; Calcite 0 10 dissolve_only; REACTION_TEMPERATURE 1; 49.5; END
USE SOLUTION 1; EQUILIBRIUM_PHASES 1; CO2(g)    -2.24 100; Hydroxyapatite 0 10 dissolve_only; Fluorapatite 0 10 dissolve_only; Calcite 0 10 dissolve_only; REACTION_TEMPERATURE 1; 49.5; END
USE SOLUTION 1; EQUILIBRIUM_PHASES 1; CO2(g)    -2.2 100; Hydroxyapatite 0 10 dissolve_only; Fluorapatite 0 10 dissolve_only; Calcite 0 10 dissolve_only; REACTION_TEMPERATURE 1; 49.5; END
USE SOLUTION 1; EQUILIBRIUM_PHASES 1; CO2(g)    -2.16 100; Hydroxyapatite 0 10 dissolve_only; Fluorapatite 0 10 dissolve_only; Calcite 0 10 dissolve_only; REACTION_TEMPERATURE 1; 49.5; END
USE SOLUTION 1; EQUILIBRIUM_PHASES 1; CO2(g)    -2.12 100; Hydroxyapatite 0 10 dissolve_only; Fluorapatite 0 10 dissolve_only; Calcite 0 10 dissolve_only; REACTION_TEMPERATURE 1; 49.5; END
USE SOLUTION 1; EQUILIBRIUM_PHASES 1; CO2(g)    -2.08 100; Hydroxyapatite 0 10 dissolve_only; Fluorapatite 0 10 dissolve_only; Calcite 0 10 dissolve_only; REACTION_TEMPERATURE 1; 49.5; END
USE SOLUTION 1; EQUILIBRIUM_PHASES 1; CO2(g)    -2.04 100; Hydroxyapatite 0 10 dissolve_only; Fluorapatite 0 10 dissolve_only; Calcite 0 10 dissolve_only; REACTION_TEMPERATURE 1; 49.5; END
USE SOLUTION 1; EQUILIBRIUM_PHASES 1; CO2(g)    -2 100; Hydroxyapatite 0 10 dissolve_only; Fluorapatite 0 10 dissolve_only; Calcite 0 10 dissolve_only; REACTION_TEMPERATURE 1; 49.5; END
USE SOLUTION 1; EQUILIBRIUM_PHASES 1; CO2(g)    -1.96 100; Hydroxyapatite 0 10 dissolve_only; Fluorapatite 0 10 dissolve_only; Calcite 0 10 dissolve_only; REACTION_TEMPERATURE 1; 49.5; END
USE SOLUTION 1; EQUILIBRIUM_PHASES 1; CO2(g)    -1.92 100; Hydroxyapatite 0 10 dissolve_only; Fluorapatite 0 10 dissolve_only; Calcite 0 10 dissolve_only; REACTION_TEMPERATURE 1; 49.5; END
USE SOLUTION 1; EQUILIBRIUM_PHASES 1; CO2(g)    -1.88 100; Hydroxyapatite 0 10 dissolve_only; Fluorapatite 0 10 dissolve_only; Calcite 0 10 dissolve_only; REACTION_TEMPERATURE 1; 49.5; END
USE SOLUTION 1; EQUILIBRIUM_PHASES 1; CO2(g)    -1.84 100; Hydroxyapatite 0 10 dissolve_only; Fluorapatite 0 10 dissolve_only; Calcite 0 10 dissolve_only; REACTION_TEMPERATURE 1; 49.5; END